%chk=C:\Users\timml\Python\CCSD_Tests\TestStructures\chain01.chk
# hf/3-21g geom=connectivity

Title Card Required

0 2
 C                 -1.16551200    0.79734428    0.00000000
 H                 -2.19603812    1.08529522    0.00000000
 C                 -0.19706756    1.74533345    0.00000000
 H                  0.83345820    1.45738141    0.00000000
 C                 -0.57974920    3.23702893    0.00000000
 H                 -1.61027532    3.52497970    0.00000000
 C                  0.38869385    4.18502017    0.00000000
 C                  0.00600932    5.67671438    0.00000000
 C                  0.97445375    6.62470336    0.00000000
 H                  0.70856474    7.66114096    0.00000000
 H                  2.00497972    6.33675147    0.00000000
 O                 -1.74640075   -1.67346133    0.00000000
 O                  0.71513155   -1.14321999    0.00000000
 Fe                -0.04235722   -3.70428267    0.00000000
 C                 -0.78282805   -0.69435036    0.00000000
 Cl                 0.26888024   -5.13414588    1.57516230
 Cl                 0.26888024   -5.13414588   -1.57516230
 C                 -1.47717205    6.09114689    0.00000000
 N                 -2.58148554    6.39969455    0.00000000
 C                  1.87188292    3.77059264    0.00000000
 H                  2.13777885    2.73415684    0.00000000
 O                  2.77114724    4.65087375    0.00000000

 1 2 1.0 3 2.0 15 1.0
 2
 3 4 1.0 5 1.0
 4
 5 6 1.0 7 2.0
 6
 7 8 1.0 20 1.0
 8 9 2.0 18 1.0
 9 10 1.0 11 1.0
 10
 11
 12 15 2.0 14 0.5
 13 15 1.0 14 0.5
 14 16 1.0 17 1.0
 15
 16
 17
 18 19 3.0
 19
 20 21 1.0 22 2.0
 21
 22

