%chk=C:\Users\timml\Python\CCSD_Tests\TestStructures\chain02.chk
# hf/3-21g geom=connectivity

Title Card Required

0 2
 C                  0.28992944    1.49566312   -0.00000181
 C                  1.53240411    2.14387507   -0.00000314
 H                  2.43534954    1.56977615   -0.00001072
 C                  1.59227337    3.54399568    0.00000686
 C                  2.95763007    4.25631668    0.00000391
 C                  4.10124856    3.52919645   -0.00000487
 O                 -0.98172868   -0.70096903   -0.00001239
 O                  1.52786819   -0.90644504   -0.00002870
 Fe                 0.06103452   -3.13831246   -0.00004375
 C                  0.22413872   -0.04293089   -0.00001229
 Cl                -0.05519608   -4.59709119    1.57506103
 Cl                -0.05521502   -4.59705805   -1.57517780
 C                 -0.89267585    2.24757172    0.00000749
 C                 -2.13515042    1.59935969    0.00000610
 C                 -0.83280662    3.64769226    0.00001785
 C                 -3.31775581    2.35126820    0.00001634
 H                 -2.18086187    0.53033659   -0.00000272
 C                 -2.01541201    4.39960080    0.00002829
 C                 -3.25788660    3.75138876    0.00002747
 H                 -4.26641274    1.85634391    0.00001529
 H                 -1.96970057    5.46862392    0.00003739
 H                 -4.16083204    4.32548764    0.00003678
 C                  0.40966798    4.29590425    0.00001718
 H                  0.45537950    5.36492737    0.00002360
 H                  5.04990544    4.02412086   -0.00000401
 H                  4.05553723    2.46017331   -0.00001317
 H                  3.00334145    5.32533983    0.00000979

 1 2 1.5 10 1.0 13 1.5
 2 3 1.0 4 1.5
 3
 4 5 1.0 23 1.5
 5 6 2.0 27 1.0
 6 25 1.0 26 1.0
 7 10 2.0 9 0.5
 8 10 1.0 9 0.5
 9 11 1.0 12 1.0
 10
 11
 12
 13 14 1.5 15 1.5
 14 16 1.5 17 1.0
 15 18 1.5 23 1.5
 16 19 1.5 20 1.0
 17
 18 19 1.5 21 1.0
 19 22 1.0
 20
 21
 22
 23 24 1.0
 24
 25
 26
 27

